  8
        -29.91026452
 Al         1.6175846271        0.0000508530       -0.0000647187
 Cl         2.4918475065       -1.8326847624       -0.0001666769
 Cl        -0.0001283285       -0.0004545999        1.5525784338
 Cl         2.4910786774        1.8332070671        0.0001685890
 Al        -1.6178970133       -0.0000464206        0.0001061798
 Cl        -2.4912010026       -1.8330936576       -0.0001188608
 Cl        -2.4913519441        1.8329873739       -0.0000392499
 Cl        -0.0000071668        0.0000352056       -1.5524537892
