  8
        -27.07923191
 Al        -1.7471632526        0.0000045310        0.0000316267
 Br        -2.6989151650        2.0299338590       -0.0000684545
 Br        -2.6987522187       -2.0299473991       -0.0000476296
 Br         0.0000401428       -0.0001193997       -1.7519370354
 Al         1.7471935936        0.0000612089        0.0001656146
 Br         2.6988048928       -2.0299373904        0.0000031538
 Br        -0.0000204447        0.0000349090        1.7520925603
 Br         2.6988325474        2.0300132225       -0.0001091980
