  6
        -26.83314970
 F          0.0372763437        1.3412719754       -0.0030760780
 Cu         1.4135750224        0.2906647615       -0.0000791886
 F          2.9265977364       -0.4870406837        0.0033404123
 F         -0.0358293549       -1.3395726283       -0.0031182333
 Cu        -1.4137503736       -0.2907795564       -0.0000530548
 F         -2.9274582088        0.4857253036        0.0032962278
