  34
       -135.59351793
 C         -0.6430620357        3.4839210678        0.7772053456
 F          0.2277901756        3.6216680758        1.7367274260
 F         -0.2479164194        4.0644803061       -0.3222475978
 F         -1.7839961691        3.9966588042        1.1443798382
 S         -1.0056091368        1.4922664283        0.4499373431
 O         -2.3991541695        1.6583400484        1.0442641770
 O         -1.0785464794        1.5651339388       -1.0955811897
 O         -0.1044449617        0.8932780927        1.5600656020
 C          2.5291300244       -3.2289981751       -0.1288436718
 F          1.6844471518       -2.5564709349       -0.9069105754
 F          3.4241425478       -3.8050151287       -0.8996628135
 F          1.8492677978       -4.1645990232        0.5010016539
 S          2.4010692091       -1.3106410964        1.5937640702
 O          3.2676827026       -0.7482897415        2.5230357180
 O          3.1721466096       -2.4037707609        0.7480464577
 O          1.0350141164       -1.6056584555        1.7677306808
 Cu        -1.7036168811       -0.1884024443        0.2564835474
 C          3.2717855673        1.6453535478       -1.2583711153
 F          4.0307700716        0.7451672026       -1.8630156679
 F          3.0301365882        2.6302148830       -2.1044161635
 F          3.9437599476        2.1253558809       -0.2248202245
 S          1.6374483479        0.8451162218       -0.6608665263
 O          1.0489575772        0.5237843465       -1.8770515926
 O          2.2934039115       -0.1189434413        0.2435244525
 O          1.0925604422        1.9997676775       -0.0184767920
 C         -3.8945575241       -0.9760727813       -1.0764652727
 F         -4.4273339775        0.2050690229       -0.8934321630
 F         -3.3051058176       -1.0760676989       -2.2334802788
 F         -4.8721660763       -1.8567738857       -1.0084443919
 S         -2.7157859329       -1.5383891316        0.2874241811
 O         -3.1911404918       -2.9006929853        0.3631330259
 O         -1.3254045104       -1.7331373902       -0.1879646333
 O         -3.1551353219       -0.8926914976        1.5132972481
 Cu         0.0772129008        0.0443943413       -0.3230793786
