  8
        -30.12035103
 Cl        -2.7933275782        2.0584100793        0.0044156006
 In        -1.8106888615       -0.0000469617        0.0003975319
 Cl        -2.8018633609       -2.0547646081       -0.0052125811
 Cl        -0.0003226323       -0.0031469245        1.7316638324
 Cl        -0.0006053703       -0.0039240940       -1.7315304062
 In         1.8107745750       -0.0001644502       -0.0003976227
 Cl         2.8023375850       -2.0548701020        0.0054722502
 Cl         2.7935037603        2.0589803393       -0.0048084018
