  6
        -21.27840103
 Br        -0.0000975525       -0.0101163385       -1.8625228294
 Pb         1.9451108601       -0.8685480963        0.0024703760
 Br         3.3375311137        1.3143251552       -0.0037722973
 Br        -0.0001923222        0.0015106254        1.8628808196
 Pb        -1.9421607447        0.8688191922       -0.0026668016
 Br        -3.3448912178       -1.3064224242        0.0039236605
