  6
        -27.91528212
 Cl         0.0008634781       -1.6487403965       -0.0005417323
 Ni         1.1618632276        0.0011758560       -0.0001824902
 Cl         3.1594100185       -0.0010318853        0.0009172919
 Cl        -3.1594688939       -0.0008954832        0.0010034259
 Ni        -1.1618294869       -0.0005257788       -0.0003239699
 Cl        -0.0008604771        1.6495912403       -0.0005402899
