  6
        -20.93462204
 Br        -3.4385947859       -0.0000661841       -0.8587787905
 Sn        -1.8333512989       -0.0002875457        1.0842097705
 Br        -0.0005358117        1.8929107725        0.0004622478
 Br         3.4389079352       -0.0000661497        0.8583559642
 Sn         1.8331965643        0.0003994244       -1.0841540574
 Br         0.0004525064       -1.8929446242       -0.0001221781
