  6
        -17.66818656
 Zn         1.7683459551        0.0007318630        0.0008490990
 Br         0.0001333396        1.8537130254       -0.0008027565
 Br         4.0264929448       -0.0016985703        0.0010097994
 Zn        -1.7685698605        0.0007524763       -0.0030709578
 Br        -4.0265419776       -0.0016900826        0.0024185326
 Br         0.0000988998       -1.8515389063       -0.0008075797
