  6
        -19.87662183
 O         -0.8793447283       -0.0014106724       -0.0006334487
 P          0.8125750457       -0.0000924618        0.0002037308
 O          1.1662586305        0.4125783325       -1.4068061222
 O          1.1643134645        1.0134077974        1.0603805962
 O          1.1664550487       -1.4245876024        0.3468941261
 Al        -2.4850268920        0.0001133442       -0.0001361238
