  25
        -96.85994087
 C          2.4547368989        2.2338626397        0.3172717442
 F          1.2834631880        2.8345118163        0.1569933371
 F          3.1664373067        2.9578100225        1.1954798568
 F          3.1174944145        2.2552240570       -0.8368859142
 S          2.2287733923        0.4327543440        0.9900165598
 O          0.7423622378        0.3980432274        0.9658685811
 O          0.8467814902        0.6264664834       -1.5864763115
 O          2.7128209687       -0.2442384867       -0.3652801921
 C         -3.8531724901        0.2026080964       -0.2916145733
 F         -4.9741735885        0.5572682664        0.3360448763
 F         -3.8011665649        0.8753436967       -1.4292691396
 F         -3.9340526736       -1.0908694990       -0.5554413627
 S         -2.3748958368        0.5824124201        0.7878965555
 O         -1.6454307446       -0.6956555031        0.9107025467
 O         -1.5119488180        1.4587064834       -0.0308875473
 O         -2.8729572924        1.1373163766        1.9896331272
 C          1.4068900472       -2.7189168193        1.1577287017
 F          0.1647654538       -2.9828511351        1.4371606027
 F         -1.4417086319       -0.5625720828       -1.6506397427
 F          1.8637622843       -3.6792077787        0.3922002254
 S          1.5670734704       -0.6300703512       -1.4674539725
 O          2.0675061209       -1.8784551056        1.6455934412
 O          0.7400332616       -1.5477250677       -0.6851268210
 O          2.2377992593       -1.1408253553       -2.5849616227
 Al        -0.4516273267       -0.0333419889       -0.3773170337
