  13
        -46.30580301
 N          0.0214154606        2.3689808901       -0.0043518129
 O          0.0152478784        1.6937655104       -1.0668220532
 O          0.0341794817        3.5362661034       -0.0068817413
 O          0.0122145210        1.6982489442        1.0607239724
 N          2.6586149550       -1.2825160750       -0.0540394034
 O          1.4775864486       -0.5558584031       -0.0391528569
 O          2.7097568505       -2.1264131928       -0.8728793637
 O          3.4487053384       -0.9539129934        0.7537967647
 N         -2.6805657552       -1.2403238828        0.0584728345
 O         -1.4873714108       -0.5338006484        0.0433560857
 O         -3.4172729109       -0.9813209248       -0.8218769162
 O         -2.7935640901       -2.0003338859        0.9500227026
 Al         0.0005850045        0.2123183344       -0.0002123131
