  29
        -58.14187930
 C         -0.2554637494        1.9056816609       -2.1225664380
 C          0.0165805236        2.4309606977       -0.7267137680
 O         -0.4491700537        3.4816916549       -0.3241108923
 O          0.7957016898        1.7330370077        0.0426536531
 C         -1.7928368031        1.5530530825        2.4304401181
 C         -2.1878364961        0.7114671728        1.2573127303
 O         -1.2755336306       -0.2675925289        1.0448799383
 O         -3.1452317278        0.8907563189        0.5525446513
 C          2.6604779384       -0.6934913444       -2.0400368251
 C         -4.9639662538       -0.7290095365       -0.6523061722
 O         -5.3421114603       -1.0466625109        0.3801416342
 O         -4.6630055180       -0.4201163621       -1.7123578546
 C          1.8965554563       -0.6305971554        2.3259679251
 C         -1.4147327931       -1.2400263625        0.0061293109
 O         -2.4848405725       -1.7334620849       -0.2215047129
 O         -0.3068487930       -1.4928533678       -0.5255931292
 Pb         1.6131152124       -0.3112212799        0.0230978563
 H         -1.0201346484        2.5150723652       -2.5952230902
 H         -0.5933357625        0.8730321037       -2.0679786351
 H          0.6595408159        1.9513706167       -2.7087067319
 H         -1.3881048809        0.9348872368        3.2249362342
 H         -2.6495111232        2.1258515716        2.7709715390
 H         -1.0209196712        2.2418656092        2.0866560623
 H          3.3979153637       -1.4589299714       -1.8380358913
 H          1.8936619505       -1.0368047885       -2.7201008337
 H          3.1061130636        0.2397467390       -2.3564638407
 H          1.0269822471       -1.1635609667        2.6835921107
 H          2.8096730751       -1.1999063787        2.4427013630
 H          1.9636201126        0.3630481004        2.7476889030
