  9
        -32.18576437
 Li         1.7187092589        1.8132240698        0.0002373458
 C         -1.0050970047        0.0341231234        0.0000425332
 F         -1.6294411851       -0.4308404420        1.0771429119
 F         -1.1393407301        1.3709605974       -0.0002493198
 F         -1.6295939069       -0.4311479820       -1.0769136813
 S          0.8316316581       -0.3052882335       -0.0000194588
 O          1.0378862136       -1.7115474575        0.0004166909
 O          1.2637672893        0.4530222432       -1.1710503285
 O          1.2637533327        0.4537610323        1.1705616015
