  17
        -64.34145155
 C         -2.4818549816       -0.8164654420       -0.4694541013
 F         -3.0206208319       -1.8495098128        0.1523645848
 F         -3.1115978735       -0.6189929609       -1.6136743882
 F         -1.1934351510       -1.1583658977       -0.7733674480
 S         -2.2599395386        0.7277912693        0.5548514302
 O         -1.6025145965        1.5653157811       -0.4561007008
 O         -3.4882609161        1.1685415871        1.0966659379
 O         -1.2188531859        0.2453176848        1.4618417037
 C          2.4819339014       -0.8164094107        0.4696837093
 F          1.1938201066       -1.1599985618        0.7723005300
 F          3.0224772005       -1.8480358406       -0.1531180643
 F          3.1107756380       -0.6194506074        1.6144286470
 S          2.2598470587        0.7281061007       -0.5540298961
 O          1.6011089166        1.5654780942        0.4561954621
 O          3.4882347037        1.1695376390       -1.0951203589
 O          1.2195153584        0.2454854409       -1.4619567282
 Mg        -0.0005195787        0.6338720149       -0.0013678425
