  9
        -35.65153541
 C          0.6485382866       -0.0006446252       -0.0003773558
 F          0.0785650056       -0.6064957936        1.0656062930
 F          0.0788294246        1.2255630457       -0.0084926812
 F          0.0781841060       -0.6206517155       -1.0580335019
 S          2.5822367003        0.0001557996        0.0000876524
 O          2.8357590339        0.7201101506        1.2194635730
 O          2.8376173429       -1.4155146550        0.0138339225
 O          2.8367160416        0.6964799395       -1.2326817045
 Ag        -2.1434354013        0.0001450255        0.0000866470
