  5
        -21.08766497
 F          1.4002834695        0.5375701529        1.1970366300
 Sn        -0.0002158585        0.0003025510        0.0002798991
 F         -1.2592158992       -1.1045164133        0.9371339715
 F          0.7561682173       -0.9910976357       -1.4585945092
 F         -0.8958872400        1.5561537487       -0.6773247250
