  19
        -66.78931251
 F         -4.0956343275        0.6818449556        1.6261029963
 C         -3.6700018173        0.6153082865        0.3753708225
 F         -4.7074585491        0.7110130313       -0.4410519364
 F         -2.8619674001        1.6566346826        0.1487097538
 S         -2.6757538803       -0.9139751777        0.0619682790
 O         -3.4553980187       -2.0485059183        0.3823723068
 O         -2.2304598853       -0.7556248443       -1.3108070017
 O         -1.5040714413       -0.6695550583        0.9533637546
 Sn         0.0000373519        0.0003582257       -0.5257304943
 O          1.5043284230        0.6695188754        0.9536127660
 S          2.6761101534        0.9139138787        0.0623010201
 O          2.2306153950        0.7566774689       -1.3105419515
 O          3.4562384980        2.0479497640        0.3832512420
 C          3.6696048812       -0.6159764939        0.3750643852
 F          4.7069276901       -0.7123159101       -0.4415307625
 F          4.0954739752       -0.6825318540        1.6257320457
 F          2.8610071564       -1.6568132915        0.1486090560
 H         -0.5307411754        1.5494144842       -1.0306301141
 H          0.5309796974       -1.5481198883       -1.0322443221
