  13
        -12.03757540
 C          0.7085458444       -1.8671160674        0.0000383580
 Al        -0.0000354802        0.0000116895       -0.0000878469
 C          1.2627870587        1.5471175367        0.0000440342
 C         -1.9712775812        0.3199816996        0.0000670905
 H          1.8036976831       -1.8927016843       -0.0118686833
 H          0.3706118682       -2.4437894075       -0.8679340104
 H          0.3901462803       -2.4366528821        0.8800013187
 H          1.9191818104        1.5527158828        0.8770660480
 H          0.7374628691        2.5084387602       -0.0058933720
 H          1.9272860128        1.5461465108       -0.8708858635
 H         -2.5409827931       -0.6157594750        0.0049790182
 H         -2.3042745848        0.8864985119       -0.8764687347
 H         -2.3028386020        0.8949914274        0.8715745807
