  17
        -64.21728672
 C         -2.5870080731       -0.9538770569        0.4464166706
 F         -1.3316544495       -1.2737817554        0.8326746465
 F         -3.3273052047       -0.8043888919        1.5270907174
 F         -3.0628878134       -1.9539868584       -0.2698023689
 S         -2.3193073324        0.6263077214       -0.5277779147
 O         -3.5096166101        1.0771772732       -1.1348221882
 O         -1.6811113266        1.4806199858        0.5062685253
 O         -1.1895725081        0.1993998879       -1.3889084697
 C          2.5863168669       -0.9543985231       -0.4462594044
 F          3.3237044056       -0.8048253988       -1.5289397597
 F          3.0651293752       -1.9535208684        0.2693962835
 F          1.3303747414       -1.2759377963       -0.8291554965
 S          2.3198810465        0.6265986734        0.5270260150
 O          1.1907062553        0.2007888414        1.3895204169
 O          3.5110667177        1.0769147285        1.1327535818
 O          1.6810289098        1.4802062745       -0.5070601172
 Zn         0.0000003523        0.7305475632        0.0005226866
