  25
        -55.20158850
 Cl         0.0396983477        3.8648479265        0.4432193221
 Al        -0.5568630338        2.0869605105       -0.3675328054
 Cl        -1.7160543471        1.8220012597       -2.0183295128
 Cl         1.1906984498        0.8438262340       -0.4639517637
 O         -1.4706190877        1.2212233735        0.9683244462
 C         -1.4405218523        0.6498275931        2.2710385169
 C         -2.5938999049        0.4402909630        1.3879463352
 C         -2.8530750913       -0.8389558651        0.6803768493
 C         -4.1683208888       -1.2680982525        0.5258856444
 C         -4.4391762047       -2.4558222341       -0.1297018509
 C         -3.4028388843       -3.2181194711       -0.6443218305
 C         -2.0929075613       -2.7915512719       -0.4970780676
 C         -1.8156998819       -1.6095429641        0.1656441181
 Cl         4.3573936980       -0.1950516420       -0.0905570542
 Al         2.4181038554       -0.9285911710        0.0285063205
 Cl         1.9275474393       -2.3085742049       -1.4367938062
 Cl         1.7944379890       -1.4177643683        1.9452343020
 H         -1.5011991771        1.3731550348        3.0759167569
 H         -0.7104769752       -0.1432844811        2.3962759187
 H         -3.4797739441        1.0455665388        1.5659970241
 H         -4.9781091767       -0.6735677724        0.9206737080
 H         -5.4607758915       -2.7841830686       -0.2446146728
 H         -3.6151148826       -4.1415725921       -1.1613645178
 H         -1.2792475068       -3.3766509178       -0.8972374078
 H         -0.7851820218       -1.2952446282        0.2692009608
