  23
        -51.37664203
 Cl        -1.8348107352        1.7905314501        0.0045030714
 Cu        -0.1343438328        0.6628565425        0.4822969924
 Cl         1.8246709541        0.8690065917        1.4071884823
 O         -0.9095282892       -1.1135261975        1.3985535180
 C         -1.0691908174       -2.3833124212        0.8027879159
 C         -2.2369516553       -1.5985584358        1.2429582313
 C         -3.1706743099       -0.9353645034        0.3010280354
 C         -2.7523137332       -0.4537428869       -0.9558057805
 C         -3.6765130703        0.1376010561       -1.8217184218
 C         -4.9944437256        0.2728060484       -1.4436629395
 C         -5.4050728212       -0.1832861485       -0.1927587320
 C         -4.5010792879       -0.7895390135        0.6678738939
 Cl         0.9714635726       -0.4173387516       -1.3286319110
 Cu         2.8139464027       -0.1113935145       -0.2710796754
 Cl         4.8143748714       -0.4863459568       -0.5875055839
 H         -0.7276447046       -3.2081413752        1.4168240932
 H         -0.8277897756       -2.4413839434       -0.2507354415
 H         -2.6853367578       -1.8727678039        2.1950655713
 H         -1.7485121872       -0.6421716581       -1.3110633749
 H         -3.3396893466        0.4898814320       -2.7833438201
 H         -5.7077909321        0.7307014719       -2.1107548763
 H         -6.4319365258       -0.0582728044        0.1150364311
 H         -4.8347237239       -1.1452446085        1.6307027548
