  23
        -48.33171679
 Cl         0.5169227075        0.8108420330       -1.7467054209
 Pb        -1.8395397551        0.6403323802       -0.3494774881
 Cl        -2.0829178980        2.9816021260        0.6273154197
 O         -3.1897868489       -1.3791636505        0.8709193916
 C         -2.8505072878       -1.9905095185        2.0978277350
 C         -2.6995581090       -2.7084749766        0.8314029656
 C         -1.3622222554       -2.9258011117        0.2049314414
 C         -0.2745056741       -3.3395927180        0.9628079608
 C          0.9627863398       -3.5075405684        0.3636977781
 C          1.1223417814       -3.2586499780       -0.9921767380
 C          0.0350970868       -2.8598956752       -1.7546577346
 C         -1.2040050292       -2.6984485345       -1.1595931549
 Cl        -0.0034126862       -0.0054577664        1.4675549115
 Pb         2.2275422273       -0.0936658798        0.0476668282
 Cl         3.0803966271        2.1868039179        0.7546637295
 H         -3.6962922551       -2.2051940732        2.7391718366
 H         -1.9712143932       -1.5845991898        2.5804166247
 H         -3.4665078689       -3.4312900662        0.5583918398
 H         -0.3970225116       -3.5322832986        2.0166897906
 H          1.8012928612       -3.8417630722        0.9555434292
 H          2.0839388513       -3.4048823718       -1.4611449505
 H          0.1507417093       -2.6781300254       -2.8115431877
 H         -2.0579343456       -2.4086332107       -1.7544104105
