  75
       -141.48023246
 C          1.3405884049        4.9837891736        1.2492350040
 C         -1.1211241943       -1.4623378459       -2.8802731363
 O         -0.7795336061       -1.1116725453       -3.9060476701
 O         -1.5013209139       -1.8851156210       -1.8779198141
 C          5.3371000507       -0.7869521506       -0.7740126126
 C          4.0425329436       -1.5590638919       -0.4921647853
 O          3.9927290040       -2.7687980170       -0.7902436875
 O          3.0730961928       -0.9555632243        0.0265471385
 C          1.2248613709        6.2694073992        0.5217895188
 C          0.5225570135        3.7713420021       -2.6846028463
 O         -0.3847071703        3.1239525254       -2.9425210067
 O          1.4016532161        4.4649220278       -2.4524007001
 C          0.4875262366        3.9549086899        1.2153806266
 C         -0.7448306645        3.8869539334        0.4293434440
 O         -1.5835587674        2.8855688342        0.7590489681
 O         -1.0838640597        4.6459093397       -0.4562150382
 C          6.0961717271        0.4910857936        1.3051117216
 C          4.7261103253        1.5713116915       -0.4587837044
 O          4.1156160170        1.5598212912       -1.7092931374
 O          3.6969989833        2.7478762203        1.2564358428
 C          5.3766026340        0.4947062202       -0.0032664627
 C          2.7423404842        1.7239579839       -1.8224736780
 O          2.2964245514        1.6305125470       -2.9489831817
 O          2.1136085751        1.9633333180       -0.7571956415
 C          1.1456812192       -0.0018740173        2.4066204086
 C         -0.1000867521       -0.3190790301        1.6733148522
 O         -1.1316846567        0.3972441738        1.8190504370
 O         -0.1944291143       -1.3450245253        0.9347486561
 C          4.2724313955        3.1050049273        6.6635933957
 C          0.4361537643        1.1399328588       -0.5113049005
 O          0.1799473799        0.5103977432       -1.4553001523
 O          4.6725323004        2.7665104482        0.2000064310
 Pb         1.6176834488       -2.9273467939        0.1387400829
 Pb        -2.6095384767       -0.9148392312        0.4311323413
 O         -3.0167681072        0.4516694202       -1.6448766349
 C         -3.0918253437        1.8539094089       -1.8357571836
 C         -4.3135068137        1.0540019917       -1.6990070138
 C         -5.1026298482        0.9704009944       -0.4419276994
 C         -4.4899564062        1.2190648234        0.7996256722
 C         -5.2196220338        1.0429028615        1.9752701237
 C         -6.5386360921        0.6220449550        1.9230004238
 C         -7.1441388508        0.3963215655        0.6963612020
 C         -6.4298940600        0.5615921923       -0.4807091688
 H          0.2508510780        6.3817332587        0.0572140452
 H          1.0014748360        0.8330604115        3.0837967742
 H          2.2209734777        4.8843625753        1.8727593892
 H          1.9161258783        0.2287282511        1.6705202348
 H          5.6721411448       -0.2808821863        1.9450711977
 H          5.3474759012       -0.5923218079       -1.8486973860
 H         -1.1927736661        2.2295100787        1.3721037491
 H          1.4247639018        7.1008763064        1.1956940396
 H          6.2783067987        6.8318326393       -0.9312925086
 H         -2.2518805129        2.3313589979        6.4366303283
 H          0.7003065610        3.0733990924        1.8026554721
 H          1.9833245641        6.2916521366       -0.2613255289
 H          7.1483727231        0.2614684669        1.1443080978
 H          3.6989451669        2.2786111098        7.0628327678
 H          6.0083887983        1.4548292058        1.7963194493
 H          6.4655456235        7.5791251606       -1.0358133343
 H          2.1869246625       -3.2716767096        1.8679998209
 H          6.1761075889       -1.4343810954       -0.5217260304
 H         -1.8967270396        2.6776691146        5.8373685490
 H          2.8563327559        2.5557399210        0.7745805922
 H          1.4850021583       -0.8882440333        2.9382188154
 H          5.2829399807        3.0626706717        7.0494812051
 H          3.8136924803        4.0402266563        6.9577822710
 H          4.2974322606        3.0394584625        5.5835237704
 H         -2.7712384504        2.1745834535       -2.8186862202
 H         -2.7366186838        2.4703400693       -1.0231652886
 H         -4.8560279649        0.8003779736       -2.6054828999
 H         -3.5332406470        1.7286992622        0.8501317713
 H         -4.7553279357        1.2659161426        2.9225792091
 H         -7.1006475120        0.4921328996        2.8345497177
 H         -8.1773176271        0.0886727509        0.6531828614
 H         -6.9077437440        0.3798060097       -1.4309120785
