  21
        -34.20913355
 Br         1.7604896833       -2.0539500440       -0.0838395364
 Br         2.5667559350        1.5814854052        0.3735070582
 Li         3.5338752412       -0.6069292631        0.6933614372
 Li         0.6693273707        0.1738552976       -0.4945994377
 O         -0.8389477732        0.7099223213       -1.3463435968
 C         -1.6029502516        1.7719741961       -1.8655009299
 C         -2.1971742436        0.4503790070       -1.6250927270
 C         -3.1197098698        0.2057785130       -0.4854733467
 C         -4.3123800307       -0.4757814870       -0.7047259606
 C         -5.1920230287       -0.6938063205        0.3409696082
 C         -4.8862892454       -0.2394561408        1.6133933322
 C         -3.6970486487        0.4351260775        1.8380184123
 C         -2.8182682017        0.6613627119        0.7936345300
 H         -1.3453300196        2.0695095501       -2.8755783042
 H         -1.8053483955        2.5752546626       -1.1667832064
 H         -2.3509207172       -0.1950959206       -2.4879186367
 H         -4.5505016047       -0.8332717860       -1.6954017450
 H         -6.1161307665       -1.2225657077        0.1629212062
 H         -5.5715685364       -0.4129033503        2.4292275142
 H         -3.4534540229        0.7890410452        2.8285206070
 H         -1.8883934102        1.1875933708        0.9735365567
