  23
        -53.22552353
 Cl        -1.7969415721       -2.6328040457        0.8571548492
 Ni        -1.0300159384       -1.0812993032       -0.1968109540
 Cl         0.9370907383       -1.5732807683        0.2832206190
 O          1.3248268303        1.8562632701        0.8555187689
 C          0.9846534788        1.7480377514        2.2221914837
 C          0.1469088828        2.5203515053        1.2999690401
 C         -1.1305534337        2.0291281878        0.7055123890
 C         -1.6345055848        2.7115642975       -0.4000159913
 C         -2.7307218240        2.2279196487       -1.0953837024
 C         -3.3464437821        1.0531637348       -0.6965185218
 C         -2.8879757676        0.3727887854        0.4366760178
 C         -1.7775874503        0.8709376191        1.1511848979
 Cl        -0.0711505075        0.1617252063       -1.6847971314
 Ni         1.7398499925        0.0936682592       -0.5753830907
 Cl         3.6590594256       -0.1323340091        0.0446724251
 H          1.6542413293        2.2777759091        2.8896710443
 H          0.6837501994        0.7595407927        2.5472295936
 H          0.2615917699        3.6023534438        1.3044958471
 H         -1.1488176675        3.6185802079       -0.7269083300
 H         -3.1007809278        2.7680195366       -1.9528468089
 H         -4.2042172944        0.6784340182       -1.2338796619
 H         -3.4898252039       -0.4219179039        0.8680150012
 H         -1.5080016515        0.4144733039        2.1005205511
