  23
        -46.21762421
 Br        -0.9047967173       -0.0276295635        1.7887045682
 Sn         1.1558426553        0.0710613170       -0.1768109796
 Br         1.7607899545        2.4756790813        0.2122008749
 O          2.9046987421       -0.7199965426        1.4784871456
 C          3.8811567179       -0.0899469607        2.2856376966
 C          4.1883434716       -1.3171468030        1.5416600069
 C          5.0379145069       -1.3253265577        0.3231913162
 C          5.9529401965       -2.3588364023        0.1463592098
 C          6.7620446237       -2.3883233621       -0.9757967553
 C          6.6619498847       -1.3920588376       -1.9333138873
 C          5.7513255706       -0.3614541650       -1.7642352392
 C          4.9460817675       -0.3265249551       -0.6398092351
 Br        -3.8053223260       -2.0733168265       -0.1894100632
 Sn        -3.2267276841        0.4092203118        0.1492141055
 Br        -1.5872047684        0.5984813627       -1.9305216747
 H          3.6790181026       -0.1424902646        3.3477705702
 H          4.2375020084        0.8624373054        1.9139779170
 H          4.1890775025       -2.2499947661        2.1011557387
 H          6.0307896282       -3.1373344829        0.8903849262
 H          7.4692793553       -3.1933358611       -1.1039042765
 H          7.2910721729       -1.4178321478       -2.8096383874
 H          5.6700759502        0.4216964336       -2.5020703616
 H          4.2459922439        0.4946776819       -0.5100594716
