  43
        -49.37633089
 C          0.0489179471       -2.4595508720        1.3305459207
 Al         0.3222551619       -1.1274212806       -0.1502508545
 C          2.2139400083       -0.3592310865       -0.1053731367
 C         -0.4214715183       -1.3807845184       -1.9926972116
 O         -0.6217001189        0.3986838836        0.3689915463
 C         -0.9698522408        1.2123743768        1.4655463614
 C         -1.6924752735        1.2973300548        0.1894123697
 C         -3.0629440405        0.7421663631        0.0374649555
 C         -4.0874395783        1.5703411374       -0.4086414983
 C         -5.3736366934        1.0753672631       -0.5325130916
 C         -5.6435950221       -0.2469425761       -0.2188459344
 C         -4.6229973948       -1.0754542022        0.2188307365
 C         -3.3367544085       -0.5832923619        0.3508480851
 C          5.3799294844       -0.9585260436        1.1477749014
 Al         4.5875345051        0.4145847508       -0.0864426262
 C          5.0155214759        0.2444619788       -2.0418711373
 C          4.3413213091        2.2709133628        0.6424098723
 H          0.9512653458       -3.0753726127        1.4155629493
 H         -0.7676664846       -3.1681282231        1.1551306979
 H         -0.1161044559       -2.0465631230        2.3318603231
 H          2.8860368422       -1.1630803186       -0.4258513308
 H          2.5002032868       -0.0537988344        0.9086945140
 H          2.3359070116        0.4906489143       -0.7876924475
 H         -0.2689151326       -0.5188816232       -2.6512599876
 H         -1.4920576463       -1.6070480922       -2.0323233301
 H          0.0749667248       -2.2199458122       -2.4915807914
 H         -0.2374075477        1.9654206470        1.7281969957
 H         -1.4281856547        0.6859676893        2.2935447112
 H         -1.4588725399        2.1313206861       -0.4678535275
 H         -3.8763518697        2.5999197000       -0.6559094373
 H         -6.1659404301        1.7216320495       -0.8786558099
 H         -6.6468160849       -0.6326033631       -0.3204693777
 H         -4.8281461045       -2.1083216283        0.4567867948
 H         -2.5339419807       -1.2335212418        0.6736508140
 H          4.8969497794       -1.0173251508        2.1296538540
 H          6.4352888719       -0.7421896850        1.3508544339
 H          5.3617526544       -1.9748484494        0.7368084135
 H          6.0784963307        0.4377762522       -2.2283136344
 H          4.4718071957        0.9505122834       -2.6796693499
 H          4.8207904227       -0.7525834916       -2.4539184395
 H          3.6524676086        2.9043227664        0.0726320241
 H          5.3034621171        2.7967117502        0.6257459441
 H          4.0076550864        2.3060469749        1.6855002639
