  42
       -122.04963338
 O          1.3020714519        1.2692020284       -3.0168013252
 S          0.5675380332        0.8932168152       -1.8732145323
 O          0.5830756277       -0.4916782649       -1.3704471634
 O          0.6073835309        1.7117690962       -0.6276589410
 C         -1.2315407339        1.1204598783       -2.4505899593
 F         -1.2545237405        1.5070261408       -3.7267177973
 F         -1.9379523157        0.0030754629       -2.3689471709
 F         -1.8491404050        2.0673417155       -1.7463082432
 O          2.7706705519       -1.8400036752       -0.4962174824
 S          2.9198941040       -0.4559947356       -0.2199092902
 O          3.0026016942        0.4738100892       -1.2915894865
 O          2.0466724590        0.0219860162        0.9004396730
 C          4.5646585873       -0.3107980958        0.6893958649
 F          4.5599392399       -1.0682428284        1.7863917603
 F          5.6017447974       -0.6949137044       -0.0571475045
 F          4.7774505065        0.9473857032        1.0639578236
 O         -2.3551678316        0.0399979985        2.5668019020
 S         -1.5528795799        0.7912012196        1.6802722766
 O         -1.5085246034        0.3490849739        0.2714389375
 O         -0.1413804000        0.9704069802        2.0601973537
 C         -2.2397875785        2.5176235490        1.5649521501
 F         -3.4162298432        2.5107201206        0.9509764409
 F         -2.4039525765        3.0598359421        2.7675719001
 F         -1.3992973434        3.2700954878        0.8750353334
 Al         0.3720961443        0.1441625714        0.4486627252
 O          0.0431987125       -1.5304856991        1.1245285404
 C          0.5073046977       -2.8738429370        1.2525710547
 C         -0.9015535879       -2.5383789855        1.5049971999
 C         -1.9867446623       -2.8629778346        0.5454829445
 C         -1.7889143192       -2.7104846139       -0.8231024119
 C         -2.8115669874       -3.0200193046       -1.7032726660
 C         -4.0253306599       -3.4899186477       -1.2266370133
 C         -4.2221825150       -3.6431467628        0.1365198170
 C         -3.2085689879       -3.3263869366        1.0240282857
 H          1.1854731369       -3.0252235855        2.0850397177
 H          0.7967893140       -3.3338540640        0.3144725899
 H         -1.2259055205       -2.4359159314        2.5388914327
 H         -0.8463153695       -2.3320823059       -1.1965331154
 H         -2.6586880047       -2.8929227014       -2.7634358562
 H         -4.8182611566       -3.7338831932       -1.9170411340
 H         -5.1676776820       -4.0058344868        0.5091199789
 H         -3.3624744134       -3.4376798750        2.0858431520
