  23
        -45.36788479
 O          1.7182489687        0.3862345890        1.1570757350
 P          2.5027312339       -0.4268250577       -0.1247214941
 O          1.1438305860       -0.1203387584       -1.1596625578
 O          3.6443129038        0.3713274394       -0.5856139556
 O          2.5419043050       -1.8629855278        0.1749533409
 Al         0.3814309958        0.6262401834        0.1459217441
 O         -0.5234217769        2.1563099218       -0.0556474173
 C         -1.6359663957        2.7784612941        0.5697400850
 C         -1.8408562785        1.7691896998       -0.4716870623
 C         -2.1303975440        0.3414104579       -0.1775121929
 C         -1.5390087430       -0.2561507993        0.9655434778
 C         -1.7133498193       -1.6266178706        1.1934963401
 C         -2.4415224356       -2.3909709330        0.2958837804
 C         -3.0241081498       -1.7976094217       -0.8145289302
 C         -2.8640369990       -0.4397956556       -1.0584785076
 H         -1.7408992680        3.8300940547        0.3167451965
 H         -1.7985948574        2.5250422906        1.6105054674
 H         -2.1059925397        2.1075632539       -1.4709817329
 H         -1.1783703420        0.3564797199        1.8033705607
 H         -1.3022478481       -2.0734679128        2.0866338128
 H         -2.5645161360       -3.4483773777        0.4706357363
 H         -3.5997058092       -2.3956621088       -1.5039376264
 H         -3.3140377459        0.0092217250       -1.9309635962
