  36
        -58.59166027
 C          3.3694969038        1.9555342738        0.8296290413
 C          3.6670230094        0.7533996348       -0.0537744050
 O          3.0268994857       -0.3856560119        0.4977809171
 C          3.3402640082       -1.6118120193       -0.1323930050
 C          2.6666452070       -1.8111462554       -1.4892914716
 F         -2.7909011956       -0.8675301155        0.0406684355
 B         -1.7478680583       -1.6979899502       -0.2305706634
 F         -2.0625584450       -3.0023398761        0.0051526900
 F         -1.2255554061       -1.5041018299       -1.4695237512
 O         -0.5619233936       -1.4018500503        0.7829138576
 C         -0.7754088012       -0.8683148750        2.0859332372
 C         -0.0300154761       -0.0928310480        1.0912492361
 C         -0.5905368980        1.1008510064        0.4008024991
 C         -1.5014986370        1.9454788423        1.0238497816
 C         -1.9880034986        3.0539378757        0.3520327618
 C         -1.5749336843        3.3223563472       -0.9420129590
 C         -0.6623176498        2.4856556923       -1.5639997483
 C         -0.1649417180        1.3833583093       -0.8935979511
 H          3.9026259460        2.8237020651        0.4533664647
 H          3.6883853356        1.7541541711        1.8485922077
 H          2.3033289675        2.1669842459        0.8305296726
 H          4.7513013720        0.5716611989       -0.1003757082
 H          3.3064679514        0.9401032473       -1.0743006507
 H          2.9952476454       -2.3810793668        0.5639267807
 H          4.4309930529       -1.7011752936       -0.2419671592
 H          1.5862319442       -1.7185105224       -1.3981724544
 H          2.8965698476       -2.8065346281       -1.8588032745
 H          3.0230421997       -1.0847364539       -2.2157067061
 H         -0.2482172354       -1.4145984771        2.8583616908
 H         -1.8046291788       -0.6069662258        2.3002801537
 H          1.0617175394       -0.1405443227        1.1108388149
 H         -1.8237016197        1.7454898270        2.0339887001
 H         -2.6961828867        3.7059611098        0.8402645355
 H         -1.9627922062        4.1828701215       -1.4659150810
 H         -0.3370197113        2.6910277019       -2.5725174943
 H          0.5395767649        0.7232954333       -1.3753571005
