  34
        -92.81062073
 O         -3.1079477886       -0.2032798875       -2.0136042464
 S         -2.2764022614       -0.1261489027       -0.8545114662
 O         -2.6153319915       -0.9949688001        0.2391498114
 O         -0.8291680327       -0.1405277348       -1.2368549226
 C         -2.4726894682        1.6590735425       -0.2391343496
 F         -1.2903365312        2.2976549023       -0.2413467980
 F         -3.2663810196        2.3498619949       -1.0596025859
 F         -2.9911559730        1.7510593282        0.9772988660
 O         -0.8360648435       -1.7644725828        2.5275668096
 S         -0.2596218285       -1.0679768502        1.4313024542
 O         -0.7483821054        0.2634009956        1.2041982974
 O          1.2072793859       -0.9747614514        1.4652493382
 C         -0.2303761069       -2.3327951613        0.0218794147
 F          0.7865184061       -1.9990076720       -0.8028674654
 F          0.1985521304       -3.4035357283        0.7004455801
 F         -1.2175368419       -2.7580722487       -0.7460206768
 Cu         0.7084924500        0.3132833153        0.1865713571
 O          1.4116798722        1.9270725100        1.5790866734
 C          1.8306302151        3.1342521055        0.9802818672
 C          2.7450282101        1.9877606104        1.0830621023
 C          2.9752611146        1.0922710327       -0.0799464924
 C          1.9457379967        0.9224338130       -1.0165252302
 C          2.1081254741        0.0912024238       -2.1142629861
 C          3.3136590166       -0.5613945797       -2.2966666611
 C          4.3539085507       -0.3753336112       -1.3844531723
 C          4.1857207714        0.4398770625       -0.2744954348
 H          1.9450476112        3.9521562968        1.6843849270
 H          1.3749823613        3.3787756353        0.0281970734
 H          3.5073772713        1.9889412112        1.8572159423
 H          1.0468657881        1.4441889482       -0.8833671104
 H          1.2928487430       -0.0218874287       -2.8087923643
 H          3.4511018012       -1.2194725562       -3.1402828222
 H          5.3009050336       -0.8678567529       -1.5457460206
 H          4.9922338772        0.5686499181        0.4303325473
