  20
        -38.68520930
 F          0.8404408958       -1.1863174643       -1.6687780380
 Cu         1.4951925706       -0.5533725872       -0.1911418994
 F          2.3438204494       -0.4642350659        1.3331852619
 O          1.0525839416        1.4396835568       -0.4141685413
 C          0.7312588506        2.2739373334        0.6820230118
 C         -0.3024664234        1.8555039579       -0.2766759376
 C         -1.3319318481        0.8260697747        0.0199999078
 C         -2.5162949267        0.8266899043       -0.7110270577
 C         -3.4713660396       -0.1496326234       -0.4921457958
 C         -3.2551745892       -1.1374000260        0.4567828166
 C         -2.0815240815       -1.1435269409        1.1908504163
 C         -1.1269308405       -0.1605860741        0.9847656168
 H          1.1584495038        3.2673235513        0.6099590155
 H          0.7817220928        1.8124196526        1.6589893657
 H         -0.5877326591        2.5656135432       -1.0494706208
 H         -2.6820159341        1.5861075950       -1.4598008939
 H         -4.3818973588       -0.1464050619       -1.0712255206
 H         -4.0003425555       -1.8994687454        0.6253624926
 H         -1.9084921045       -1.9051623014        1.9355386339
 H         -0.2360575233       -0.1602444465        1.6013282037
