  23
        -48.76754519
 O          3.2903470619       -0.1793973638       -0.0217509782
 S          1.8682671054        0.0007741586       -0.0242178010
 O          1.1548693095       -0.8284483693       -1.0267193204
 O          1.2064042273       -0.3875670487        1.2470044940
 O          1.3910174775        1.3612420433       -0.2735501883
 Cu        -0.0980614882       -0.0143643225        0.0523082349
 O         -0.7715518320       -2.2052644888        0.5643312317
 C         -1.2911458304       -2.5447903195       -0.7085759007
 C         -1.9902531935       -1.6072340255        0.1783002197
 C         -1.8081999216       -0.1531270110        0.0389623295
 C         -1.5166703747        0.5457833871        1.1801014260
 C         -1.2341544711        1.9287340577        1.1294437862
 C         -1.1666048917        2.5762669436       -0.0973527772
 C         -1.2827549633        1.8244579304       -1.2558281135
 C         -1.5361294825        0.4324025958       -1.1727206261
 H         -1.6596275080       -3.5633490984       -0.7737306762
 H         -0.6939446950       -2.1822240720       -1.5389452756
 H         -2.8626638053       -1.9543320117        0.7244057056
 H         -1.6466404121        0.0597402274        2.1346467239
 H         -1.0996285467        2.4787544273        2.0495915181
 H         -0.9963902484        3.6396850262       -0.1479929342
 H         -1.1883273663        2.2908626130       -2.2253172018
 H         -1.7168539494       -0.1196227194       -2.0844362025
