  21
        -40.31020063
 Cl         1.4414929864        0.2180597703       -2.2816325128
 In         1.1909027649        0.2624245159        0.0253355124
 Cl         2.9582146714       -0.6134971071        1.2373469360
 Cl        -0.0109561907        1.9455146739        1.0553611978
 O         -0.0817366188       -1.7528076393        0.3287932873
 C         -0.6286799546       -2.6092687633       -0.6520062723
 C         -1.4713742302       -2.0284291155        0.4010673755
 C         -2.4508762746       -0.9385034289        0.1512271835
 C         -3.5890770516       -0.8632371361        0.9491737460
 C         -4.5208578807        0.1384014641        0.7432307231
 C         -4.3246021027        1.0759194147       -0.2575109810
 C         -3.1941074622        1.0066957441       -1.0550920342
 C         -2.2618257985        0.0030349082       -0.8563007830
 H         -0.3027253923       -3.6407793195       -0.5706107335
 H         -0.6771232870       -2.2050255592       -1.6572310304
 H         -1.7195894898       -2.6672562309        1.2479538096
 H         -3.7427763220       -1.5898297838        1.7334331459
 H         -5.3991979410        0.1896316493        1.3685814280
 H         -5.0497257886        1.8599185662       -0.4147661623
 H         -3.0352653827        1.7335257906       -1.8374548268
 H         -1.3876750712       -0.0415225365       -1.4983529108
