  20
        -35.88406118
 Br        -0.5377172951        2.1702594979       -0.6355022835
 Pb        -1.0596769630        0.0312092963        0.7777250568
 Br        -2.3182944993       -1.3905611655       -1.0232094998
 O          1.2190262438       -1.0343911679        0.0855803866
 C          1.4981218526       -1.7978075718       -1.0686007503
 C          2.1454610897       -0.4974671052       -0.8458447851
 C          3.5629576242       -0.3831609817       -0.4199443884
 C          4.0768617986       -1.1808190058        0.5963124101
 C          5.4046070936       -1.0638168231        0.9669568907
 C          6.2283524317       -0.1549545801        0.3235378577
 C          5.7188704001        0.6440240021       -0.6874073948
 C          4.3899168004        0.5355365885       -1.0567576634
 H          0.6908521972       -1.8831157685       -1.7849990775
 H          2.0554701619       -2.7051858421       -0.8733489026
 H          1.7703545344        0.3489707154       -1.4149160227
 H          3.4316920853       -1.8812143960        1.1059127144
 H          5.7964186325       -1.6838450239        1.7594016859
 H          7.2648279589       -0.0661482091        0.6123462746
 H          6.3566734169        1.3572939824       -1.1872136485
 H          3.9890825277        1.1620441756       -1.8396427609
