  46
        -83.37705623
 C          1.9254383997       -3.0085259093       -3.0271043034
 C          1.5727492332       -2.1339143177       -1.7975684099
 O          2.1621721116       -2.3689891933       -0.7528040251
 O          0.6977259655       -1.2703027843       -2.0381481162
 C         -1.8075446496       -2.8890576171        2.8772456236
 C         -1.3097936177       -1.8947166079        1.8448787551
 O         -1.7695712159       -1.9534432765        0.6835917318
 O         -0.4425702119       -1.0600243444        2.1854907114
 C         -5.4362860027        0.1976934517       -1.4457677007
 C         -5.8546847081        0.3341575624        0.1290632005
 O         -5.7180134089        1.4686749140        0.5303094777
 O         -6.2279963799       -0.7319207071        0.5641033778
 C         -3.2640353977        3.3298727987       -0.6652331722
 C         -2.2424088050        2.2120404818       -0.5154352881
 O         -2.4295022698        1.1580658154       -1.1644464226
 O         -1.2726250021        2.3915175202        0.2424221989
 Pb        -0.3614400422       -0.0241919690       -0.1768648278
 O          1.9321909502        0.8296701251        0.7959867613
 C          2.3126077327        0.5451652188        2.1216431597
 C          3.0469162885       -0.0172602084        0.9740410576
 C          4.3701692774        0.5074878656        0.5646151643
 C          5.4546648855       -0.3652943381        0.4719599492
 C          6.7036717948        0.1177512509        0.1325628139
 C          6.8800404253        1.4701145230       -0.1319071386
 C          5.8010559091        2.3400044844       -0.0514177260
 C          4.5503314245        1.8637308086        0.2917750866
 H          1.8303083046       -2.4098482916       -3.9265947557
 H          1.2046607634       -3.8223609609       -3.0487077377
 H          2.9300823087       -3.3996809011       -2.9043379565
 H         -1.3246167780       -3.8444099393        2.6823352325
 H         -2.8813639188       -3.0087019916        2.7656974103
 H         -1.5519630647       -2.5420784590        3.8732186819
 H         -5.6384484413       -0.8189203520       -1.7585373543
 H         -4.3744379898        0.4380281088       -1.4722836942
 H         -6.0387217597        0.9273623013       -1.9754251437
 H         -2.9004992620        4.2251107961       -0.1724554520
 H         -4.1879350500        2.9887592776       -0.1988046757
 H         -3.4418289835        3.5066739535       -1.7222882672
 H          1.6326997507       -0.0864974465        2.6771756957
 H          2.7326150610        1.3937058600        2.6496368508
 H          2.8666309169       -1.0633178547        0.7244755951
 H          5.3062880146       -1.4159758456        0.6684726446
 H          7.5421606532       -0.5585207458        0.0667055202
 H          7.8549095459        1.8433383421       -0.4065598449
 H          5.9373409798        3.3909508926       -0.2565663117
 H          3.7027629709        2.5300113083        0.3490010951
