  20
        -37.09926871
 F          0.9127834034       -1.8533951342       -0.6357002068
 Pb         1.6066166030       -0.0566454142        0.2938397774
 F          2.1313437134        0.9840990308       -1.4988968583
 O         -0.7593893401        0.8556357995       -0.0615683965
 C         -1.1445192629        1.4186662341       -1.2999986334
 C         -1.6974492479        0.1344029838       -0.8484327485
 C         -3.0845042352        0.0231100828       -0.3279804554
 C         -3.9146635255       -0.9801774806       -0.8158419610
 C         -5.2170165107       -1.0861998826       -0.3605004014
 C         -5.6972113920       -0.1988865670        0.5892860141
 C         -4.8706083361        0.7962986618        1.0840219373
 C         -3.5698330480        0.9103797865        0.6262708593
 H         -0.3757098529        1.4374902233       -2.0607234452
 H         -1.7494017525        2.3119560859       -1.2023511413
 H         -1.2956505534       -0.7674531477       -1.2999422014
 H         -3.5354247532       -1.6733891613       -1.5517850262
 H         -5.8569239518       -1.8657008762       -0.7454398351
 H         -6.7125511172       -0.2857691492        0.9456348766
 H         -5.2392095458        1.4863016760        1.8282153093
 H         -2.9203258001        1.6784079396        1.0189978741
