  26
        -57.47534923
 O          2.7314306707        2.2285104927       -0.1130107233
 S          2.0555750904        0.9760645369       -0.0156498889
 O          1.2728186828        0.7219525513        1.1823586845
 O          1.3012828262        0.5263332275       -1.1748754324
 C          3.3645543078       -0.3515826499        0.1060316436
 F          4.1270982965       -0.2400037656        1.1944172151
 F          2.7434904133       -1.5402632839        0.1758039436
 F          4.1710663447       -0.3906772860       -0.9557162997
 Li         0.1906974320       -0.3681086399        0.0800210407
 O         -1.1046877613       -1.5976611502       -0.0232426189
 C         -1.8459936311       -2.3241520501       -0.9798852804
 C         -2.4857904044       -1.7602127548        0.2167361441
 C         -3.3663970936       -0.5643682972        0.1376585785
 C         -4.6530088669       -0.6247554738        0.6653097545
 C         -5.4932625971        0.4714917025        0.5772629894
 C         -5.0544569805        1.6361288094       -0.0310893850
 C         -3.7720313051        1.7022982045       -0.5536847715
 C         -2.9301049801        0.6059357648       -0.4758462911
 H         -1.6206224250       -3.3846436862       -1.0155280498
 H         -1.9818342419       -1.8258965071       -1.9322376688
 H         -2.7087075838       -2.4456078203        1.0334709084
 H         -4.9952566079       -1.5313604754        1.1407373212
 H         -6.4903953397        0.4177257387        0.9864744110
 H         -5.7085755542        2.4920237739       -0.0968889055
 H         -3.4264053027        2.6081440952       -1.0287800344
 H         -1.9236917149        0.6587820933       -0.8875292920
