  19
        -29.72001852
 Br         3.4348635798       -0.4246288167       -0.0969808299
 Li         1.3946839999        0.6207226771       -0.2329147391
 O         -0.1229045877        1.5281936471        0.0636121592
 C         -0.9114912114        2.3196632614        0.9187747640
 C         -1.4895250017        1.6599770721       -0.2586526283
 C         -2.3706652968        0.4700527023       -0.1338296853
 C         -3.5793685909        0.4443028525       -0.8219932415
 C         -4.4246721425       -0.6444294487       -0.7029664791
 C         -4.0677976062       -1.7181249528        0.0966632156
 C         -2.8626226506       -1.6995940651        0.7796313172
 C         -2.0185061021       -0.6088302059        0.6695109993
 H         -0.6985313565        3.3815483746        0.8902587029
 H         -1.0945190429        1.8980252431        1.8995247792
 H         -1.6769585147        2.2768977634       -1.1345405555
 H         -3.8573108957        1.2793725341       -1.4477788355
 H         -5.3618676807       -0.6565143010       -1.2383807665
 H         -4.7259358499       -2.5690364006        0.1856296903
 H         -2.5783741545       -2.5348383105        1.4018674681
 H         -1.0773353458       -0.6021099554        1.2056483898
