  34
        -89.65895954
 O         -1.6971121421        0.9480998216        1.3684342178
 S         -1.9664436618        1.8489704470        0.2575081843
 O         -2.6613233011        3.0516984687        0.5551006787
 O         -0.7776997470        1.9653768847       -0.5696300905
 C         -3.0458909350        0.7798271932       -0.8148339189
 F         -4.0397033709        0.2096371846       -0.1374966076
 F         -3.5624476578        1.3975383113       -1.8728987487
 F         -2.2503327892       -0.2066389967       -1.2683751027
 O          1.7580347653       -2.8215342073       -0.0639462231
 S          0.7436271261       -1.8548445065        0.1670388529
 O          0.7549233925       -1.1711002630        1.4455040452
 O          0.4920084635       -0.8880921496       -0.8922761524
 C         -0.8969310343       -2.7315627493        0.2440589525
 F         -1.7790023739       -1.8369542588        0.7285514743
 F         -1.3358954847       -3.1104416808       -0.9549020495
 F         -0.9187110508       -3.7908428606        1.0483481058
 Mg        -0.1339453352        0.3419325498        0.4277264916
 O          1.0836554584        1.4416860535        1.3455803764
 C          1.6518506929        2.7273267853        1.4571359513
 C          2.4860030226        1.5153360260        1.4912671844
 C          3.3004563492        1.1059198213        0.3152358647
 C          2.7732308874        1.2119222446       -0.9709405852
 C          3.5380206646        0.8277159619       -2.0597003262
 C          4.8270356956        0.3506002564       -1.8770721929
 C          5.3544405499        0.2528516978       -0.6000310621
 C          4.5942152130        0.6262867195        0.4949468373
 H          1.4140436350        3.2387176977        2.3866836345
 H          1.6229829455        3.3224908536        0.5486456986
 H          2.8408473938        1.1637284119        2.4608593934
 H          1.7652631047        1.5922480486       -1.1266082871
 H          3.1281015339        0.9083999396       -3.0550767014
 H          5.4195145610        0.0558863200       -2.7297865774
 H          6.3579873124       -0.1170810071       -0.4563263365
 H          5.0061606211        0.5485784078        1.4896633935
