  20
        -39.22737916
 Cl         2.5090779269        0.5807750010        0.8664753697
 Ni         0.9559566759       -0.0799846135       -0.2659895861
 Cl         1.6078456970       -1.9762766331       -0.1567258764
 O          0.3151505287        1.8111295216       -0.7072135063
 C         -0.2672691774        2.6852202004        0.2357759297
 C         -1.0948653923        1.9412802146       -0.7197439237
 C         -1.8221036575        0.7050649244       -0.3017543442
 C         -2.9403348696        0.7482882580        0.5194927885
 C         -3.5511473479       -0.4313064897        0.9130862618
 C         -3.0483364972       -1.6544318614        0.4970100334
 C         -1.9379512926       -1.7081735686       -0.3300122452
 C         -1.3151653656       -0.5302760184       -0.7303336508
 H         -0.0527666825        3.7323068559        0.0559769485
 H         -0.2178402745        2.3609383594        1.2690595679
 H         -1.4810822424        2.4699321108       -1.5894703483
 H         -3.3236633535        1.7020601245        0.8479214970
 H         -4.4193442641       -0.3950571118        1.5528360377
 H         -3.5251201075       -2.5698757690        0.8110970154
 H         -1.5518881034       -2.6577050046       -0.6684220143
 H         -0.5308814764       -0.5684551827       -1.5196746990
