  25
        -60.00655190
 F          3.1269207099       -1.0255278298       -1.0527839788
 Sb         2.0028805084       -0.0624922984        0.0955535034
 F          1.2393372713        0.7699073273       -1.4357326504
 F          0.7087757988       -1.4559503157       -0.0387047847
 F          0.7974306224        0.8697155410        1.2468744017
 F          2.6980901350       -0.9084130738        1.6177568618
 F          3.1951383213        1.3765881711        0.2375720175
 Ag        -0.8933221990        0.3606335066       -0.4022625420
 O         -2.5858281388        2.2181022970       -0.2413103432
 C         -3.0787920776        2.3291575871        1.0825855791
 C         -3.6988593290        1.4183020279        0.1176933427
 C         -3.3786331924       -0.0462403772        0.1400556646
 C         -3.4500377624       -0.8117970794        1.3064232243
 C         -3.1520707776       -2.1677770732        1.2641306066
 C         -2.7809325118       -2.7721117870        0.0713158497
 C         -2.7202277930       -2.0322241145       -1.1032241514
 C         -3.0145373500       -0.6621152691       -1.0880200663
 H         -3.5596484538        3.2773163214        1.2957090139
 H         -2.4296507217        1.9275376084        1.8554304211
 H         -4.6276868042        1.7135039256       -0.3652400306
 H         -3.7839067993       -0.3563186076        2.2270147924
 H         -3.2304951834       -2.7584027207        2.1638072610
 H         -2.5705237467       -3.8302171160        0.0482512030
 H         -2.5151877690       -2.5248004889       -2.0432584115
 H         -3.1588394917       -0.1190150155       -2.0231857302
