  20
        -36.63740848
 Cl         1.5183459575       -1.6363819099        1.3935245175
 Sn         1.2952587782       -0.2300968050       -0.5718113254
 Cl         3.3354586366        1.0492906616       -0.2766327143
 O         -0.3526422385        1.4394819804        0.5297786614
 C         -0.8608462233        1.4948362939        1.8431785348
 C         -1.7342776780        1.7056673475        0.6816311851
 C         -2.7270498263        0.6966573848        0.2298676287
 C         -3.9740779164        1.1286478529       -0.2123082932
 C         -4.9214457739        0.2112366583       -0.6312853018
 C         -4.6318369545       -1.1435152377       -0.6190645204
 C         -3.3911414649       -1.5792768789       -0.1824216577
 C         -2.4442436676       -0.6648511285        0.2441719461
 H         -0.5195375616        2.3449032421        2.4207709581
 H         -0.8904249691        0.5472547409        2.3659258774
 H         -1.9921841328        2.7346928483        0.4377467714
 H         -4.2010124977        2.1843366062       -0.2250125972
 H         -5.8862720749        0.5555486034       -0.9713699677
 H         -5.3701558694       -1.8581540042       -0.9495704266
 H         -3.1590215125       -2.6333587111       -0.1665536780
 H         -1.4793239726       -1.0174825960        0.5952112621
