  20
        -35.72903923
 Br        -0.9286641351        2.1357498776        0.4949598460
 Sn        -0.6977702188       -0.1088865572       -0.7570122218
 Br        -2.8897314903       -1.2351212346        0.0359890030
 O          0.8122054227       -1.1326991865        1.0540696150
 C          1.3340840533       -0.7044602444        2.2923799417
 C          2.1707519410       -1.4259293136        1.3263192497
 C          3.2250915958       -0.7627665746        0.5172520893
 C          3.0649142712        0.5268559214        0.0217764679
 C          4.0626148822        1.1145861350       -0.7355956473
 C          5.2331917792        0.4220071460       -0.9992319792
 C          5.4014723061       -0.8612716134       -0.5047052305
 C          4.4023223137       -1.4538839706        0.2470336186
 H          0.9310315626       -1.2267680358        3.1506676922
 H          1.4457461750        0.3668806667        2.4003357595
 H          2.3396947269       -2.4843994685        1.5123393932
 H          2.1602409062        1.0859440888        0.2340674306
 H          3.9251518993        2.1168501439       -1.1121773587
 H          6.0117963842        0.8818225610       -1.5884226351
 H          6.3114831675       -1.4049158707       -0.7078255350
 H          4.5338246093       -2.4554007864        0.6291249244
