  22
        -45.38000365
 Cl         2.7430959472       -0.4779231830       -1.0234652846
 Ti         0.8770655207        0.0796049721       -0.0625499842
 Cl         0.9835798178        2.2463465134       -0.2081321740
 Cl        -0.3301660825       -0.0835751864       -1.9213009222
 Cl         1.7081502469        0.0712070527        2.0402741331
 O          0.2998109085       -1.7543314310        0.4409257197
 C         -0.5018450610       -2.7598448209       -0.1582312825
 C         -1.0156615820       -1.9501320866        0.9523103182
 C         -1.9239591886       -0.7930872917        0.6673286442
 C         -3.0416447774       -0.9260012554       -0.1479435651
 C         -3.7863317481        0.1932346751       -0.4834819586
 C         -3.4094595158        1.4464673152       -0.0287701359
 C         -2.3113658478        1.5829618665        0.8074575614
 C         -1.5662773081        0.4660306383        1.1697599301
 H         -0.1457606451       -3.7684348231        0.0350064728
 H         -0.8277846842       -2.5285846391       -1.1709131681
 H         -1.0268306844       -2.3709943709        1.9601685398
 H         -3.3220518332       -1.8985180518       -0.5214381610
 H         -4.6525142986        0.0876530464       -1.1177694868
 H         -3.9782127505        2.3183838365       -0.3128916166
 H         -2.0365989463        2.5539043067        1.1950611046
 H         -0.7897671653        0.5588109919        1.9327245917
