  34
        -89.52940535
 O         -1.3457723431        0.7644097828       -1.0060818645
 S         -0.9616543251        1.6451830281        0.1027384430
 O         -2.0014336759        2.4286939630        0.6714690505
 O         -0.1560796894        0.8301934640        1.0210833879
 C          0.2464925680        2.8722539285       -0.6363957908
 F          0.6157682029        3.7646795782        0.2786811057
 F          1.3398284816        2.2704459107       -1.0909576443
 F         -0.3135402123        3.5304824119       -1.6492029322
 O          2.9478338653       -2.4037956406       -0.8319114544
 S          2.1047877955       -1.4185030474       -0.2509423298
 O          1.4158326574       -0.4952468334       -1.1600505270
 O          1.0955750767       -1.8995450242        0.7023214998
 C          3.2309098414       -0.3097350121        0.7608570249
 F          2.6221590034        0.8341286243        1.0625708176
 F          3.5923619472       -0.8975022041        1.8984843068
 F          4.3371268966       -0.0149279461        0.0820560726
 Zn        -0.2729012307       -0.7315876633       -0.1643930107
 O         -0.9385063630       -2.1782555621       -1.3940181629
 C         -1.9563701257       -1.9575391427       -2.3657120069
 C         -2.2774628956       -2.5296372859       -1.0583516194
 C         -2.8301928126       -1.6665832746        0.0267156251
 C         -3.9796468958       -0.9032518969       -0.1336859871
 C         -4.3885133656       -0.0582139113        0.8848350776
 C         -3.6569784745        0.0321642538        2.0595974041
 C         -2.5238520257       -0.7438802873        2.2372526709
 C         -2.0927199224       -1.5981692115        1.2222612228
 H         -2.1869413367       -0.9170181216       -2.5579843656
 H         -1.8740563367       -2.6136660763       -3.2258100941
 H         -2.4312900267       -3.6050163945       -0.9721236146
 H         -4.5460737980       -0.9725728004       -1.0492440551
 H         -5.2795193221        0.5368706822        0.7605546057
 H         -3.9813495330        0.6969226944        2.8443393984
 H         -1.9821316225       -0.7122473751        3.1699111148
 H         -1.3157307315       -2.3331536641        1.4289240484
